* File: Coin_bank.pex.sp.pex
* Created: Wed Jan 17 12:36:35 2024
* Program "Calibre xRC"
* Version "v2021.3_35.19"
* Nominal Temperature: 27C
* Circuit Temperature: 27C
* 
.subckt PM_COIN_BANK%X3/8 5 9 15 19 75 80 85 89 95 99
c0 102 0 0.160665f
c1 99 0 0.301011f
c2 95 0 0.418389f
c3 72 0 0.60607f
c4 71 0 0.0653604f
c5 69 0 0.00294012f
c6 68 0 0.0183077f
c7 58 0 0.309245f
c8 54 0 0.450065f
c9 50 0 0.254515f
c10 46 0 0.424017f
c11 42 0 0.494066f
c12 37 0 0.0328966f
c13 34 0 0.420962f
c14 30 0 0.0863451f
c15 25 0 0.0577841f
c16 19 0 0.322973f
c17 15 0 0.243364f
c18 12 0 0.157967f
c19 11 0 0.207943f
c20 9 0 0.314582f
c21 5 0 0.236121f
c22 2 0 0.0504927f
r23 102 104 10.0404
r24 102 103 9.46352
r25 99 104 122
r26 95 103 156
r27 89 91 2.15357
r28 85 87 2.15357
r29 80 82 1.005
r30 75 77 1.005
r31 71 102 13.2552
r32 71 72 0.0391989
r33 63 69 0.035
r34 63 72 0.944
r35 60 82 8.16635
r36 58 82 5.44423
r37 58 60 0.22
r38 56 69 0.035
r39 56 58 0.437
r40 54 91 8.16635
r41 52 69 0.035
r42 52 54 0.583
r43 51 68 0.00770322
r44 50 69 0.035
r45 50 51 0.512
r46 48 77 8.16635
r47 46 77 5.44423
r48 46 48 0.22
r49 44 68 0.0296412
r50 44 46 0.427
r51 42 87 8.16635
r52 40 68 0.0296412
r53 40 42 0.695
r54 36 37 0.0522826
r55 34 71 8
r56 34 36 1.06899
r57 30 37 0.194122
r58 22 24 5.23973
r59 17 25 9.99706
r60 17 19 130.5
r61 13 25 9.99706
r62 13 15 96
r63 12 24 1.10959
r64 11 25 2.08772
r65 11 12 11.4658
r66 7 24 6.80277
r67 7 9 130.5
r68 3 24 6.80277
r69 3 5 96
r70 2 30 8
r71 2 22 13.2552
.ends

.subckt PM_COIN_BANK%X3/9 12 13 16
c0 16 0 0.00352873f
c1 10 0 0.187877f
c2 7 0 0.0605804f
c3 6 0 0.26704f
c4 4 0 0.208463f
r5 16 18 2.475
r6 13 15 2.15357
r7 12 15 2.60357
r8 10 18 8.16635
r9 8 10 0.251
r10 6 8 0.039111
r11 6 7 0.34
r12 4 15 8.16635
r13 2 7 0.039111
r14 2 4 0.251
.ends

.subckt PM_COIN_BANK%X3/10 16 17 21
c0 12 0 0.3578f
c1 9 0 0.0369988f
c2 8 0 0.236483f
c3 4 0 0.425982f
r4 21 23 1.185
r5 17 19 1.035
r6 16 19 1.185
r7 14 23 8.16635
r8 12 23 5.44423
r9 12 14 0.22
r10 10 12 0.299
r11 8 10 0.0415798
r12 8 9 0.348
r13 6 19 8.16635
r14 4 19 5.44423
r15 4 6 0.22
r16 2 9 0.039111
r17 2 4 0.299
.ends

.subckt PM_COIN_BANK%X3/11 19 20 23 27
c0 18 0 0.0317303f
c1 16 0 0.126441f
c2 12 0 0.124597f
c3 10 0 0.128737f
c4 7 0 0.0601612f
c5 6 0 0.205238f
c6 4 0 0.212276f
r7 27 29 2.53929
r8 23 25 2.025
r9 20 22 2.08929
r10 19 22 2.34643
r11 16 29 8.16635
r12 14 16 0.259
r13 13 18 0.0296412
r14 12 14 0.039111
r15 12 13 0.142
r16 10 25 8.16635
r17 8 18 0.00770322
r18 8 10 0.259
r19 6 18 0.0296412
r20 6 7 0.298
r21 4 22 8.16635
r22 2 7 0.039111
r23 2 4 0.259
.ends

.subckt PM_COIN_BANK%X3/12 25 26 30 35
c0 35 0 0.103011f
c1 24 0 0.0379398f
c2 20 0 0.243803f
c3 16 0 0.17296f
c4 12 0 0.222507f
c5 9 0 0.057537f
c6 8 0 0.223018f
c7 4 0 0.398623f
r8 35 37 1.275
r9 30 32 1.065
r10 26 28 1.035
r11 25 28 1.035
r12 22 37 8.16635
r13 20 37 5.44423
r14 20 22 0.22
r15 18 20 0.277
r16 17 24 0.0296412
r17 16 18 0.039111
r18 16 17 0.142
r19 14 32 8.16635
r20 12 32 5.44423
r21 12 14 0.22
r22 10 24 0.00770322
r23 10 12 0.287
r24 8 24 0.0296412
r25 8 9 0.298
r26 6 28 8.16635
r27 4 28 5.44423
r28 4 6 0.22
r29 2 9 0.039111
r30 2 4 0.277
.ends

.subckt PM_COIN_BANK%X3/13 5 9 15 19 58 63 68 72
c0 74 0 0.0023157f
c1 65 0 0.00541332f
c2 56 0 0.0312372f
c3 55 0 0.0195761f
c4 54 0 0.0348084f
c5 52 0 0.273201f
c6 48 0 0.174951f
c7 45 0 0.0187173f
c8 42 0 0.398933f
c9 38 0 0.36139f
c10 34 0 0.387058f
c11 30 0 0.594427f
c12 25 0 0.0453972f
c13 19 0 0.34859f
c14 15 0 0.252575f
c15 12 0 0.156591f
c16 11 0 0.184143f
c17 9 0 0.314868f
c18 5 0 0.247168f
r19 72 74 2.21786
r20 68 70 2.08929
r21 63 65 1.065
r22 58 60 1.065
r23 53 55 0.00770322
r24 52 53 0.474
r25 50 65 8.16635
r26 48 65 5.44423
r27 48 50 0.22
r28 46 56 0.0296412
r29 46 48 0.287
r30 45 56 0.0296412
r31 44 55 0.0296412
r32 44 45 0.042
r33 42 74 8.16635
r34 40 55 0.0296412
r35 40 42 0.733
r36 39 54 0.00770322
r37 38 56 0.00770322
r38 38 39 0.722
r39 36 60 8.16635
r40 34 60 5.44423
r41 34 36 0.22
r42 32 54 0.0296412
r43 32 34 0.277
r44 30 70 8.16635
r45 28 54 0.0296412
r46 28 30 0.845
r47 22 24 5.23973
r48 17 25 9.99706
r49 17 19 130.5
r50 13 25 9.99706
r51 13 15 96
r52 12 24 1.10959
r53 11 25 2.08772
r54 11 12 11.4658
r55 7 24 6.80277
r56 7 9 130.5
r57 3 24 6.80277
r58 3 5 96
r59 2 52 0.0368903
r60 2 22 13.2552
.ends

.subckt PM_COIN_BANK%X3/14 1 2
r0 1 2 2.16
.ends

.subckt PM_COIN_BANK%X3/15 1 2
r0 1 2 2.82
.ends

.subckt PM_COIN_BANK%X3/16 1 2
r0 1 2 2.76
.ends

.subckt PM_COIN_BANK%X3/17 1 2
r0 1 2 4.62857
.ends

.subckt PM_COIN_BANK%X3/18 1 2
r0 1 2 6.04286
.ends

.subckt PM_COIN_BANK%X3/19 1 2
r0 1 2 5.91429
.ends

.subckt PM_COIN_BANK%X4/8 5 9 15 19 75 80 85 89 95 99
c0 102 0 0.160882f
c1 99 0 0.302268f
c2 95 0 0.418389f
c3 87 0 0.0138395f
c4 77 0 0.0296515f
c5 72 0 0.629219f
c6 71 0 0.0664006f
c7 69 0 0.00294012f
c8 68 0 0.0194419f
c9 58 0 0.327339f
c10 54 0 0.456106f
c11 50 0 0.273136f
c12 46 0 0.442969f
c13 42 0 0.476795f
c14 37 0 0.0311376f
c15 34 0 0.4215f
c16 30 0 0.0500518f
c17 25 0 0.045219f
c18 19 0 0.336837f
c19 15 0 0.256993f
c20 12 0 0.158701f
c21 11 0 0.184684f
c22 9 0 0.329178f
c23 5 0 0.249869f
c24 2 0 0.0495834f
r25 102 104 10.0404
r26 102 103 9.46352
r27 99 104 122
r28 95 103 156
r29 89 91 2.15357
r30 85 87 2.15357
r31 80 82 1.005
r32 75 77 1.005
r33 71 102 13.2552
r34 71 72 0.0391989
r35 63 69 0.035
r36 63 72 0.944
r37 60 82 8.16635
r38 58 82 5.44423
r39 58 60 0.22
r40 56 69 0.035
r41 56 58 0.437
r42 54 91 8.16635
r43 52 69 0.035
r44 52 54 0.583
r45 51 68 0.00770322
r46 50 69 0.035
r47 50 51 0.512
r48 48 77 8.16635
r49 46 77 5.44423
r50 46 48 0.22
r51 44 68 0.0296412
r52 44 46 0.427
r53 42 87 8.16635
r54 40 68 0.0296412
r55 40 42 0.695
r56 36 37 0.0522826
r57 34 71 8
r58 34 36 1.06899
r59 30 37 0.194122
r60 22 24 5.23973
r61 17 25 9.99706
r62 17 19 130.5
r63 13 25 9.99706
r64 13 15 96
r65 12 24 1.10959
r66 11 25 2.08772
r67 11 12 11.4658
r68 7 24 6.80277
r69 7 9 130.5
r70 3 24 6.80277
r71 3 5 96
r72 2 30 8
r73 2 22 13.2552
.ends

.subckt PM_COIN_BANK%X4/9 12 13 16
c0 10 0 0.18707f
c1 7 0 0.0620598f
c2 6 0 0.265169f
c3 4 0 0.218688f
r4 16 18 2.475
r5 13 15 2.15357
r6 12 15 2.60357
r7 10 18 8.16635
r8 8 10 0.251
r9 6 8 0.039111
r10 6 7 0.34
r11 4 15 8.16635
r12 2 7 0.039111
r13 2 4 0.251
.ends

.subckt PM_COIN_BANK%X4/10 16 17 21
c0 16 0 0.102109f
c1 12 0 0.381434f
c2 9 0 0.0418727f
c3 8 0 0.238627f
c4 4 0 0.448032f
r5 21 23 1.185
r6 17 19 1.035
r7 16 19 1.185
r8 14 23 8.16635
r9 12 23 5.44423
r10 12 14 0.22
r11 10 12 0.299
r12 8 10 0.0415798
r13 8 9 0.348
r14 6 19 8.16635
r15 4 19 5.44423
r16 4 6 0.22
r17 2 9 0.039111
r18 2 4 0.299
.ends

.subckt PM_COIN_BANK%X4/11 19 20 23 27
c0 18 0 0.0317303f
c1 16 0 0.126465f
c2 12 0 0.124597f
c3 10 0 0.128766f
c4 7 0 0.0601612f
c5 6 0 0.205238f
c6 4 0 0.212304f
r7 27 29 2.53929
r8 23 25 2.025
r9 20 22 2.08929
r10 19 22 2.34643
r11 16 29 8.16635
r12 14 16 0.259
r13 13 18 0.0296412
r14 12 14 0.039111
r15 12 13 0.142
r16 10 25 8.16635
r17 8 18 0.00770322
r18 8 10 0.259
r19 6 18 0.0296412
r20 6 7 0.298
r21 4 22 8.16635
r22 2 7 0.039111
r23 2 4 0.259
.ends

.subckt PM_COIN_BANK%X4/12 25 26 30 35
c0 35 0 0.103011f
c1 25 0 0.0926106f
c2 24 0 0.0379398f
c3 20 0 0.243803f
c4 16 0 0.17296f
c5 12 0 0.225533f
c6 9 0 0.0604394f
c7 8 0 0.223018f
c8 4 0 0.426229f
r9 35 37 1.275
r10 30 32 1.065
r11 26 28 1.035
r12 25 28 1.035
r13 22 37 8.16635
r14 20 37 5.44423
r15 20 22 0.22
r16 18 20 0.277
r17 17 24 0.0296412
r18 16 18 0.039111
r19 16 17 0.142
r20 14 32 8.16635
r21 12 32 5.44423
r22 12 14 0.22
r23 10 24 0.00770322
r24 10 12 0.287
r25 8 24 0.0296412
r26 8 9 0.298
r27 6 28 8.16635
r28 4 28 5.44423
r29 4 6 0.22
r30 2 9 0.039111
r31 2 4 0.277
.ends

.subckt PM_COIN_BANK%X4/13 5 9 15 19 58 63 68 72
c0 74 0 0.0023157f
c1 65 0 0.00541332f
c2 56 0 0.0312372f
c3 55 0 0.0197122f
c4 54 0 0.0348084f
c5 52 0 0.262196f
c6 48 0 0.176257f
c7 45 0 0.0187982f
c8 42 0 0.377925f
c9 38 0 0.372142f
c10 34 0 0.404019f
c11 30 0 0.600586f
c12 25 0 0.0488433f
c13 19 0 0.338905f
c14 15 0 0.243914f
c15 12 0 0.155603f
c16 11 0 0.181573f
c17 9 0 0.314868f
c18 5 0 0.235344f
r19 72 74 2.21786
r20 68 70 2.08929
r21 63 65 1.065
r22 58 60 1.065
r23 53 55 0.00770322
r24 52 53 0.474
r25 50 65 8.16635
r26 48 65 5.44423
r27 48 50 0.22
r28 46 56 0.0296412
r29 46 48 0.287
r30 45 56 0.0296412
r31 44 55 0.0296412
r32 44 45 0.042
r33 42 74 8.16635
r34 40 55 0.0296412
r35 40 42 0.733
r36 39 54 0.00770322
r37 38 56 0.00770322
r38 38 39 0.722
r39 36 60 8.16635
r40 34 60 5.44423
r41 34 36 0.22
r42 32 54 0.0296412
r43 32 34 0.277
r44 30 70 8.16635
r45 28 54 0.0296412
r46 28 30 0.845
r47 22 24 5.23973
r48 17 25 9.99706
r49 17 19 130.5
r50 13 25 9.99706
r51 13 15 96
r52 12 24 1.10959
r53 11 25 2.08772
r54 11 12 11.4658
r55 7 24 6.80277
r56 7 9 130.5
r57 3 24 6.80277
r58 3 5 96
r59 2 52 0.0368903
r60 2 22 13.2552
.ends

.subckt PM_COIN_BANK%X4/14 1 2
r0 1 2 2.16
.ends

.subckt PM_COIN_BANK%X4/15 1 2
r0 1 2 2.82
.ends

.subckt PM_COIN_BANK%X4/16 1 2
r0 1 2 2.76
.ends

.subckt PM_COIN_BANK%X4/17 1 2
r0 1 2 4.62857
.ends

.subckt PM_COIN_BANK%X4/18 1 2
r0 1 2 6.04286
.ends

.subckt PM_COIN_BANK%X4/19 1 2
r0 1 2 5.91429
.ends

.subckt PM_COIN_BANK%X5/8 5 9 15 19 75 80 85 89 95 99
c0 102 0 0.161207f
c1 99 0 0.301011f
c2 95 0 0.418914f
c3 72 0 0.626228f
c4 71 0 0.0658784f
c5 69 0 0.00294012f
c6 68 0 0.0205592f
c7 58 0 0.312246f
c8 54 0 0.450629f
c9 50 0 0.254515f
c10 46 0 0.450193f
c11 42 0 0.481159f
c12 37 0 0.0329268f
c13 34 0 0.42104f
c14 30 0 0.0879059f
c15 25 0 0.0523558f
c16 19 0 0.337361f
c17 15 0 0.25058f
c18 12 0 0.158676f
c19 11 0 0.209573f
c20 9 0 0.329791f
c21 5 0 0.24811f
c22 2 0 0.0513694f
r23 102 104 10.0404
r24 102 103 9.46352
r25 99 104 122
r26 95 103 156
r27 89 91 2.15357
r28 85 87 2.15357
r29 80 82 1.005
r30 75 77 1.005
r31 71 102 13.2552
r32 71 72 0.0391989
r33 63 69 0.035
r34 63 72 0.944
r35 60 82 8.16635
r36 58 82 5.44423
r37 58 60 0.22
r38 56 69 0.035
r39 56 58 0.437
r40 54 91 8.16635
r41 52 69 0.035
r42 52 54 0.583
r43 51 68 0.00770322
r44 50 69 0.035
r45 50 51 0.512
r46 48 77 8.16635
r47 46 77 5.44423
r48 46 48 0.22
r49 44 68 0.0296412
r50 44 46 0.427
r51 42 87 8.16635
r52 40 68 0.0296412
r53 40 42 0.695
r54 36 37 0.0522826
r55 34 71 8
r56 34 36 1.06899
r57 30 37 0.194122
r58 22 24 5.23973
r59 17 25 9.99706
r60 17 19 130.5
r61 13 25 9.99706
r62 13 15 96
r63 12 24 1.10959
r64 11 25 2.08772
r65 11 12 11.4658
r66 7 24 6.80277
r67 7 9 130.5
r68 3 24 6.80277
r69 3 5 96
r70 2 30 8
r71 2 22 13.2552
.ends

.subckt PM_COIN_BANK%X5/9 12 13 16
c0 10 0 0.174915f
c1 7 0 0.0604568f
c2 6 0 0.264066f
c3 4 0 0.20684f
r4 16 18 2.475
r5 13 15 2.15357
r6 12 15 2.60357
r7 10 18 8.16635
r8 8 10 0.251
r9 6 8 0.039111
r10 6 7 0.34
r11 4 15 8.16635
r12 2 7 0.039111
r13 2 4 0.251
.ends

.subckt PM_COIN_BANK%X5/10 16 17 21
c0 21 0 0.0050779f
c1 16 0 0.0407295f
c2 12 0 0.396623f
c3 9 0 0.0391529f
c4 8 0 0.245125f
c5 4 0 0.462998f
r6 21 23 1.185
r7 17 19 1.035
r8 16 19 1.185
r9 14 23 8.16635
r10 12 23 5.44423
r11 12 14 0.22
r12 10 12 0.299
r13 8 10 0.0415798
r14 8 9 0.348
r15 6 19 8.16635
r16 4 19 5.44423
r17 4 6 0.22
r18 2 9 0.039111
r19 2 4 0.299
.ends

.subckt PM_COIN_BANK%X5/11 19 20 23 27
c0 18 0 0.0317303f
c1 16 0 0.127406f
c2 12 0 0.124665f
c3 10 0 0.128737f
c4 7 0 0.0601612f
c5 6 0 0.205238f
c6 4 0 0.212276f
r7 27 29 2.53929
r8 23 25 2.025
r9 20 22 2.08929
r10 19 22 2.34643
r11 16 29 8.16635
r12 14 16 0.259
r13 13 18 0.0296412
r14 12 14 0.039111
r15 12 13 0.142
r16 10 25 8.16635
r17 8 18 0.00770322
r18 8 10 0.259
r19 6 18 0.0296412
r20 6 7 0.298
r21 4 22 8.16635
r22 2 7 0.039111
r23 2 4 0.259
.ends

.subckt PM_COIN_BANK%X5/12 25 26 30 35
c0 35 0 0.103011f
c1 25 0 0.0951496f
c2 24 0 0.0379398f
c3 20 0 0.247238f
c4 16 0 0.17296f
c5 12 0 0.235093f
c6 9 0 0.057537f
c7 8 0 0.237093f
c8 4 0 0.427879f
r9 35 37 1.275
r10 30 32 1.065
r11 26 28 1.035
r12 25 28 1.035
r13 22 37 8.16635
r14 20 37 5.44423
r15 20 22 0.22
r16 18 20 0.277
r17 17 24 0.0296412
r18 16 18 0.039111
r19 16 17 0.142
r20 14 32 8.16635
r21 12 32 5.44423
r22 12 14 0.22
r23 10 24 0.00770322
r24 10 12 0.287
r25 8 24 0.0296412
r26 8 9 0.298
r27 6 28 8.16635
r28 4 28 5.44423
r29 4 6 0.22
r30 2 9 0.039111
r31 2 4 0.277
.ends

.subckt PM_COIN_BANK%X5/13 5 9 15 19 58 63 68 72
c0 74 0 0.0023157f
c1 65 0 0.00541332f
c2 56 0 0.0312372f
c3 55 0 0.0199568f
c4 54 0 0.0348084f
c5 52 0 0.261524f
c6 48 0 0.178605f
c7 45 0 0.0189436f
c8 42 0 0.38131f
c9 38 0 0.376111f
c10 34 0 0.39308f
c11 30 0 0.60108f
c12 25 0 0.0452179f
c13 19 0 0.342498f
c14 15 0 0.238747f
c15 12 0 0.155603f
c16 11 0 0.182707f
c17 9 0 0.315252f
c18 5 0 0.235344f
r19 72 74 2.21786
r20 68 70 2.08929
r21 63 65 1.065
r22 58 60 1.065
r23 53 55 0.00770322
r24 52 53 0.474
r25 50 65 8.16635
r26 48 65 5.44423
r27 48 50 0.22
r28 46 56 0.0296412
r29 46 48 0.287
r30 45 56 0.0296412
r31 44 55 0.0296412
r32 44 45 0.042
r33 42 74 8.16635
r34 40 55 0.0296412
r35 40 42 0.733
r36 39 54 0.00770322
r37 38 56 0.00770322
r38 38 39 0.722
r39 36 60 8.16635
r40 34 60 5.44423
r41 34 36 0.22
r42 32 54 0.0296412
r43 32 34 0.277
r44 30 70 8.16635
r45 28 54 0.0296412
r46 28 30 0.845
r47 22 24 5.23973
r48 17 25 9.99706
r49 17 19 130.5
r50 13 25 9.99706
r51 13 15 96
r52 12 24 1.10959
r53 11 25 2.08772
r54 11 12 11.4658
r55 7 24 6.80277
r56 7 9 130.5
r57 3 24 6.80277
r58 3 5 96
r59 2 52 0.0368903
r60 2 22 13.2552
.ends

.subckt PM_COIN_BANK%X5/14 1 2
r0 1 2 2.16
.ends

.subckt PM_COIN_BANK%X5/15 1 2
c0 1 0 0.19312f
r1 1 2 2.82
.ends

.subckt PM_COIN_BANK%X5/16 1 2
r0 1 2 2.76
.ends

.subckt PM_COIN_BANK%X5/17 1 2
r0 1 2 4.62857
.ends

.subckt PM_COIN_BANK%X5/18 1 2
c0 1 0 0.0901228f
r1 1 2 6.04286
.ends

.subckt PM_COIN_BANK%X5/19 1 2
r0 1 2 5.91429
.ends

.subckt PM_COIN_BANK%X6/8 5 9 15 19 75 80 85 89 95 99
c0 102 0 0.163711f
c1 99 0 0.301011f
c2 95 0 0.440071f
c3 91 0 0.0115195f
c4 72 0 0.606779f
c5 71 0 0.0657127f
c6 69 0 0.00294012f
c7 68 0 0.0183077f
c8 58 0 0.329561f
c9 54 0 0.473617f
c10 50 0 0.27232f
c11 46 0 0.440023f
c12 42 0 0.4905f
c13 37 0 0.0360216f
c14 34 0 0.476679f
c15 30 0 0.102797f
c16 25 0 0.0572962f
c17 19 0 0.327278f
c18 15 0 0.257973f
c19 12 0 0.158086f
c20 11 0 0.209125f
c21 9 0 0.316207f
c22 5 0 0.256188f
c23 2 0 0.0506927f
r24 102 104 10.0404
r25 102 103 9.46352
r26 99 104 122
r27 95 103 156
r28 89 91 2.15357
r29 85 87 2.15357
r30 80 82 1.005
r31 75 77 1.005
r32 71 102 13.2552
r33 71 72 0.0391989
r34 63 69 0.035
r35 63 72 0.944
r36 60 82 8.16635
r37 58 82 5.44423
r38 58 60 0.22
r39 56 69 0.035
r40 56 58 0.437
r41 54 91 8.16635
r42 52 69 0.035
r43 52 54 0.583
r44 51 68 0.00770322
r45 50 69 0.035
r46 50 51 0.512
r47 48 77 8.16635
r48 46 77 5.44423
r49 46 48 0.22
r50 44 68 0.0296412
r51 44 46 0.427
r52 42 87 8.16635
r53 40 68 0.0296412
r54 40 42 0.695
r55 36 37 0.0522826
r56 34 71 8
r57 34 36 1.06899
r58 30 37 0.194122
r59 22 24 5.23973
r60 17 25 9.99706
r61 17 19 130.5
r62 13 25 9.99706
r63 13 15 96
r64 12 24 1.10959
r65 11 25 2.08772
r66 11 12 11.4658
r67 7 24 6.80277
r68 7 9 130.5
r69 3 24 6.80277
r70 3 5 96
r71 2 30 8
r72 2 22 13.2552
.ends

.subckt PM_COIN_BANK%X6/9 12 13 16
c0 10 0 0.179622f
c1 7 0 0.0605658f
c2 6 0 0.266051f
c3 4 0 0.211016f
r4 16 18 2.475
r5 13 15 2.15357
r6 12 15 2.60357
r7 10 18 8.16635
r8 8 10 0.251
r9 6 8 0.039111
r10 6 7 0.34
r11 4 15 8.16635
r12 2 7 0.039111
r13 2 4 0.251
.ends

.subckt PM_COIN_BANK%X6/10 16 17 21
c0 12 0 0.363465f
c1 9 0 0.0376957f
c2 8 0 0.236536f
c3 4 0 0.431146f
r4 21 23 1.185
r5 17 19 1.035
r6 16 19 1.185
r7 14 23 8.16635
r8 12 23 5.44423
r9 12 14 0.22
r10 10 12 0.299
r11 8 10 0.0415798
r12 8 9 0.348
r13 6 19 8.16635
r14 4 19 5.44423
r15 4 6 0.22
r16 2 9 0.039111
r17 2 4 0.299
.ends

.subckt PM_COIN_BANK%X6/11 19 20 23 27
c0 27 0 0.0832463f
c1 19 0 0.0108795f
c2 18 0 0.0317303f
c3 16 0 0.128405f
c4 12 0 0.127548f
c5 10 0 0.138458f
c6 7 0 0.0602871f
c7 6 0 0.206111f
c8 4 0 0.219627f
r9 27 29 2.53929
r10 23 25 2.025
r11 20 22 2.08929
r12 19 22 2.34643
r13 16 29 8.16635
r14 14 16 0.259
r15 13 18 0.0296412
r16 12 14 0.039111
r17 12 13 0.142
r18 10 25 8.16635
r19 8 18 0.00770322
r20 8 10 0.259
r21 6 18 0.0296412
r22 6 7 0.298
r23 4 22 8.16635
r24 2 7 0.039111
r25 2 4 0.259
.ends

.subckt PM_COIN_BANK%X6/12 25 26 30 35
c0 35 0 0.0621788f
c1 24 0 0.0379398f
c2 20 0 0.243815f
c3 16 0 0.17338f
c4 12 0 0.222507f
c5 9 0 0.0579039f
c6 8 0 0.223018f
c7 4 0 0.402113f
r8 35 37 1.275
r9 30 32 1.065
r10 26 28 1.035
r11 25 28 1.035
r12 22 37 8.16635
r13 20 37 5.44423
r14 20 22 0.22
r15 18 20 0.277
r16 17 24 0.0296412
r17 16 18 0.039111
r18 16 17 0.142
r19 14 32 8.16635
r20 12 32 5.44423
r21 12 14 0.22
r22 10 24 0.00770322
r23 10 12 0.287
r24 8 24 0.0296412
r25 8 9 0.298
r26 6 28 8.16635
r27 4 28 5.44423
r28 4 6 0.22
r29 2 9 0.039111
r30 2 4 0.277
.ends

.subckt PM_COIN_BANK%X6/13 5 9 15 19 58 63 68 72
c0 74 0 0.0023157f
c1 65 0 0.00541332f
c2 56 0 0.0264448f
c3 55 0 0.025326f
c4 54 0 0.0348084f
c5 52 0 0.262247f
c6 48 0 0.230141f
c7 45 0 0.0221344f
c8 42 0 0.391677f
c9 38 0 0.399973f
c10 34 0 0.387434f
c11 30 0 0.608423f
c12 25 0 0.0488648f
c13 19 0 0.333947f
c14 15 0 0.242094f
c15 12 0 0.155603f
c16 11 0 0.19176f
c17 9 0 0.330917f
c18 5 0 0.235344f
r19 72 74 2.21786
r20 68 70 2.08929
r21 63 65 1.065
r22 58 60 1.065
r23 53 55 0.00770322
r24 52 53 0.474
r25 50 65 8.16635
r26 48 65 5.44423
r27 48 50 0.22
r28 46 56 0.0296412
r29 46 48 0.287
r30 45 56 0.0296412
r31 44 55 0.0296412
r32 44 45 0.042
r33 42 74 8.16635
r34 40 55 0.0296412
r35 40 42 0.733
r36 39 54 0.00770322
r37 38 56 0.00770322
r38 38 39 0.722
r39 36 60 8.16635
r40 34 60 5.44423
r41 34 36 0.22
r42 32 54 0.0296412
r43 32 34 0.277
r44 30 70 8.16635
r45 28 54 0.0296412
r46 28 30 0.845
r47 22 24 5.23973
r48 17 25 9.99706
r49 17 19 130.5
r50 13 25 9.99706
r51 13 15 96
r52 12 24 1.10959
r53 11 25 2.08772
r54 11 12 11.4658
r55 7 24 6.80277
r56 7 9 130.5
r57 3 24 6.80277
r58 3 5 96
r59 2 52 0.0368903
r60 2 22 13.2552
.ends

.subckt PM_COIN_BANK%X6/14 1 2
c0 1 0 0.082337f
r1 1 2 2.16
.ends

.subckt PM_COIN_BANK%X6/15 1 2
c0 1 0 0.140387f
r1 1 2 2.82
.ends

.subckt PM_COIN_BANK%X6/16 1 2
r0 1 2 2.76
.ends

.subckt PM_COIN_BANK%X6/17 1 2
c0 1 0 0.0505268f
r1 1 2 4.62857
.ends

.subckt PM_COIN_BANK%X6/18 1 2
r0 1 2 6.04286
.ends

.subckt PM_COIN_BANK%X6/19 1 2
r0 1 2 5.91429
.ends

.subckt PM_COIN_BANK%X7/X0/7 6 7 11 12 24 29
c0 60 0 0.0829574f
c1 57 0 0.110349f
c2 56 0 1.08346f
c3 53 0 0.0920371f
c4 52 0 0.652077f
c5 51 0 0.446387f
c6 48 0 0.308173f
c7 32 0 0.137017f
c8 30 0 0.054518f
c9 27 0 0.19022f
c10 26 0 0.322115f
c11 22 0 0.298948f
c12 18 0 0.191742f
c13 5 0 0.478853f
c14 3 0 0.617134f
r15 55 57 0.039111
r16 55 56 0.959123
r17 52 56 0.0334527
r18 51 53 0.039648
r19 50 51 0.456842
r20 49 60 0.00911086
r21 48 50 0.0393533
r22 48 49 0.249298
r23 44 60 0.0280042
r24 40 60 0.0280042
r25 30 32 4.43382
r26 27 30 7.65153
r27 27 29 51.5
r28 26 57 0.233947
r29 26 32 13.2552
r30 22 24 90
r31 18 22 7.65153
r32 18 20 4.43382
r33 17 52 0.262193
r34 17 53 0.156579
r35 17 20 13.2552
r36 12 14 1.818
r37 11 14 1.53
r38 7 9 1.425
r39 6 9 1.365
r40 5 14 5.44423
r41 4 40 0.127951
r42 4 5 0.111311
r43 4 14 16.3327
r44 3 44 0.246148
r45 3 9 5.44423
r46 2 3 0.131967
r47 2 9 8.16635
.ends

.subckt PM_COIN_BANK%X7/X1/7 6 7 11 12 24 29
c0 60 0 0.069573f
c1 57 0 0.120301f
c2 56 0 1.08403f
c3 53 0 0.0960042f
c4 52 0 0.63694f
c5 51 0 0.477637f
c6 48 0 0.303357f
c7 32 0 0.136469f
c8 30 0 0.0548624f
c9 27 0 0.193538f
c10 26 0 0.344714f
c11 22 0 0.294491f
c12 18 0 0.191714f
c13 11 0 0.0102095f
c14 6 0 0.0107511f
c15 5 0 0.515782f
c16 3 0 0.631241f
r17 55 57 0.039111
r18 55 56 0.959123
r19 52 56 0.0334527
r20 51 53 0.039648
r21 50 51 0.456842
r22 49 60 0.00911086
r23 48 50 0.0393533
r24 48 49 0.249298
r25 44 60 0.0280042
r26 40 60 0.0280042
r27 30 32 4.43382
r28 27 30 7.65153
r29 27 29 51.5
r30 26 57 0.233947
r31 26 32 13.2552
r32 22 24 90
r33 18 22 7.65153
r34 18 20 4.43382
r35 17 52 0.262193
r36 17 53 0.156579
r37 17 20 13.2552
r38 12 14 1.818
r39 11 14 1.53
r40 7 9 1.425
r41 6 9 1.365
r42 5 14 5.44423
r43 4 40 0.127951
r44 4 5 0.111311
r45 4 14 16.3327
r46 3 44 0.246148
r47 3 9 5.44423
r48 2 3 0.131967
r49 2 9 8.16635
.ends

.subckt PM_COIN_BANK%X8/X0/7 6 7 11 12 24 29
c0 60 0 0.0842446f
c1 57 0 0.111057f
c2 56 0 1.09405f
c3 53 0 0.0920371f
c4 52 0 0.639721f
c5 51 0 0.462355f
c6 48 0 0.310769f
c7 32 0 0.136853f
c8 30 0 0.0542889f
c9 27 0 0.189489f
c10 26 0 0.322588f
c11 22 0 0.296239f
c12 18 0 0.191997f
c13 6 0 0.0158685f
c14 5 0 0.482882f
c15 3 0 0.61377f
r16 55 57 0.039111
r17 55 56 0.959123
r18 52 56 0.0334527
r19 51 53 0.039648
r20 50 51 0.456842
r21 49 60 0.00911086
r22 48 50 0.0393533
r23 48 49 0.249298
r24 44 60 0.0280042
r25 40 60 0.0280042
r26 30 32 4.43382
r27 27 30 7.65153
r28 27 29 51.5
r29 26 57 0.233947
r30 26 32 13.2552
r31 22 24 90
r32 18 22 7.65153
r33 18 20 4.43382
r34 17 52 0.262193
r35 17 53 0.156579
r36 17 20 13.2552
r37 12 14 1.818
r38 11 14 1.53
r39 7 9 1.425
r40 6 9 1.365
r41 5 14 5.44423
r42 4 40 0.127951
r43 4 5 0.111311
r44 4 14 16.3327
r45 3 44 0.246148
r46 3 9 5.44423
r47 2 3 0.131967
r48 2 9 8.16635
.ends

.subckt PM_COIN_BANK%X8/X1/7 6 7 11 12 24 29
c0 60 0 0.0673504f
c1 57 0 0.120822f
c2 56 0 1.0882f
c3 53 0 0.0920371f
c4 52 0 0.638634f
c5 51 0 0.467112f
c6 48 0 0.313199f
c7 32 0 0.136041f
c8 30 0 0.0547739f
c9 27 0 0.193256f
c10 26 0 0.345067f
c11 22 0 0.295367f
c12 18 0 0.191916f
c13 11 0 0.0102095f
c14 6 0 0.0241262f
c15 5 0 0.516229f
c16 3 0 0.652549f
r17 55 57 0.039111
r18 55 56 0.959123
r19 52 56 0.0334527
r20 51 53 0.039648
r21 50 51 0.456842
r22 49 60 0.00911086
r23 48 50 0.0393533
r24 48 49 0.249298
r25 44 60 0.0280042
r26 40 60 0.0280042
r27 30 32 4.43382
r28 27 30 7.65153
r29 27 29 51.5
r30 26 57 0.233947
r31 26 32 13.2552
r32 22 24 90
r33 18 22 7.65153
r34 18 20 4.43382
r35 17 52 0.262193
r36 17 53 0.156579
r37 17 20 13.2552
r38 12 14 1.818
r39 11 14 1.53
r40 7 9 1.425
r41 6 9 1.365
r42 5 14 5.44423
r43 4 40 0.127951
r44 4 5 0.111311
r45 4 14 16.3327
r46 3 44 0.246148
r47 3 9 5.44423
r48 2 3 0.131967
r49 2 9 8.16635
.ends

.subckt PM_COIN_BANK%X9/X0/7 6 7 11 12 24 29
c0 60 0 0.0636969f
c1 57 0 0.114898f
c2 56 0 1.11308f
c3 53 0 0.0923797f
c4 52 0 0.640373f
c5 51 0 0.45645f
c6 48 0 0.296086f
c7 32 0 0.136367f
c8 30 0 0.0542675f
c9 27 0 0.188926f
c10 26 0 0.319057f
c11 22 0 0.295796f
c12 18 0 0.192285f
c13 6 0 0.0107511f
c14 5 0 0.479976f
c15 3 0 0.614644f
r16 55 57 0.039111
r17 55 56 0.959123
r18 52 56 0.0334527
r19 51 53 0.039648
r20 50 51 0.456842
r21 49 60 0.00911086
r22 48 50 0.0393533
r23 48 49 0.249298
r24 44 60 0.0280042
r25 40 60 0.0280042
r26 30 32 4.43382
r27 27 30 7.65153
r28 27 29 51.5
r29 26 57 0.233947
r30 26 32 13.2552
r31 22 24 90
r32 18 22 7.65153
r33 18 20 4.43382
r34 17 52 0.262193
r35 17 53 0.156579
r36 17 20 13.2552
r37 12 14 1.818
r38 11 14 1.53
r39 7 9 1.425
r40 6 9 1.365
r41 5 14 5.44423
r42 4 40 0.127951
r43 4 5 0.111311
r44 4 14 16.3327
r45 3 44 0.246148
r46 3 9 5.44423
r47 2 3 0.131967
r48 2 9 8.16635
.ends

.subckt PM_COIN_BANK%X9/X1/7 6 7 11 12 24 29
c0 60 0 0.0598565f
c1 57 0 0.117336f
c2 56 0 1.09753f
c3 53 0 0.092414f
c4 52 0 0.631922f
c5 51 0 0.44058f
c6 48 0 0.302984f
c7 32 0 0.138101f
c8 30 0 0.055614f
c9 27 0 0.212545f
c10 26 0 0.353141f
c11 22 0 0.278212f
c12 18 0 0.191418f
c13 11 0 0.0102095f
c14 5 0 0.520189f
c15 3 0 0.587253f
r16 55 57 0.039111
r17 55 56 0.959123
r18 52 56 0.0334527
r19 51 53 0.039648
r20 50 51 0.456842
r21 49 60 0.00911086
r22 48 50 0.0393533
r23 48 49 0.249298
r24 44 60 0.0280042
r25 40 60 0.0280042
r26 30 32 4.43382
r27 27 30 7.65153
r28 27 29 51.5
r29 26 57 0.233947
r30 26 32 13.2552
r31 22 24 90
r32 18 22 7.65153
r33 18 20 4.43382
r34 17 52 0.262193
r35 17 53 0.156579
r36 17 20 13.2552
r37 12 14 1.818
r38 11 14 1.53
r39 7 9 1.425
r40 6 9 1.365
r41 5 14 5.44423
r42 4 40 0.127951
r43 4 5 0.111311
r44 4 14 16.3327
r45 3 44 0.246148
r46 3 9 5.44423
r47 2 3 0.131967
r48 2 9 8.16635
.ends

.subckt PM_COIN_BANK%X10/X0/7 6 7 11 12 24 29
c0 60 0 0.0628383f
c1 57 0 0.115589f
c2 56 0 1.10862f
c3 53 0 0.0920371f
c4 52 0 0.659852f
c5 51 0 0.455235f
c6 48 0 0.290525f
c7 32 0 0.136367f
c8 30 0 0.0542675f
c9 27 0 0.188926f
c10 26 0 0.321572f
c11 22 0 0.300005f
c12 18 0 0.192037f
c13 6 0 0.0212314f
c14 5 0 0.478853f
c15 3 0 0.607563f
r16 55 57 0.039111
r17 55 56 0.959123
r18 52 56 0.0334527
r19 51 53 0.039648
r20 50 51 0.456842
r21 49 60 0.00911086
r22 48 50 0.0393533
r23 48 49 0.249298
r24 44 60 0.0280042
r25 40 60 0.0280042
r26 30 32 4.43382
r27 27 30 7.65153
r28 27 29 51.5
r29 26 57 0.233947
r30 26 32 13.2552
r31 22 24 90
r32 18 22 7.65153
r33 18 20 4.43382
r34 17 52 0.262193
r35 17 53 0.156579
r36 17 20 13.2552
r37 12 14 1.818
r38 11 14 1.53
r39 7 9 1.425
r40 6 9 1.365
r41 5 14 5.44423
r42 4 40 0.127951
r43 4 5 0.111311
r44 4 14 16.3327
r45 3 44 0.246148
r46 3 9 5.44423
r47 2 3 0.131967
r48 2 9 8.16635
.ends

.subckt PM_COIN_BANK%X10/X1/7 6 7 11 12 24 29
c0 60 0 0.0598565f
c1 57 0 0.120772f
c2 56 0 1.07503f
c3 53 0 0.0920371f
c4 52 0 0.632043f
c5 51 0 0.460433f
c6 48 0 0.319458f
c7 32 0 0.136263f
c8 30 0 0.0548556f
c9 27 0 0.193516f
c10 26 0 0.340079f
c11 22 0 0.290804f
c12 18 0 0.191257f
c13 11 0 0.0102095f
c14 5 0 0.507283f
c15 3 0 0.61912f
r16 55 57 0.039111
r17 55 56 0.959123
r18 52 56 0.0334527
r19 51 53 0.039648
r20 50 51 0.456842
r21 49 60 0.00911086
r22 48 50 0.0393533
r23 48 49 0.249298
r24 44 60 0.0280042
r25 40 60 0.0280042
r26 30 32 4.43382
r27 27 30 7.65153
r28 27 29 51.5
r29 26 57 0.233947
r30 26 32 13.2552
r31 22 24 90
r32 18 22 7.65153
r33 18 20 4.43382
r34 17 52 0.262193
r35 17 53 0.156579
r36 17 20 13.2552
r37 12 14 1.818
r38 11 14 1.53
r39 7 9 1.425
r40 6 9 1.365
r41 5 14 5.44423
r42 4 40 0.127951
r43 4 5 0.111311
r44 4 14 16.3327
r45 3 44 0.246148
r46 3 9 5.44423
r47 2 3 0.131967
r48 2 9 8.16635
.ends

.subckt PM_COIN_BANK%X7/8 6 8 17 19 49 55
c0 87 0 1.73138f
c1 71 0 0.0548011f
c2 49 0 0.0201627f
c3 48 0 0.766771f
c4 29 0 0.321875f
c5 17 0 0.0250984f
c6 15 0 0.724175f
c7 6 0 0.0145518f
c8 4 0 0.897258f
r9 84 87 1.07085
r10 74 79 8
r11 71 87 8
r12 71 74 0.00265306
r13 67 84 8
r14 54 55 3.58592
r15 49 51 1.365
r16 48 79 0.316522
r17 48 54 8.16635
r18 47 79 0.401739
r19 47 51 5.44423
r20 46 47 0.188696
r21 46 51 16.3327
r22 30 67 0.231491
r23 30 34 8
r24 29 67 0.192719
r25 29 41 8
r26 19 21 2.925
r27 17 18 3.02631
r28 16 17 4.7849
r29 15 41 0.327174
r30 15 21 8.16635
r31 14 41 0.388043
r32 14 18 5.44423
r33 13 14 0.188696
r34 13 16 16.3327
r35 8 10 2.925
r36 6 7 3.02631
r37 5 6 4.7849
r38 4 34 0.328696
r39 4 10 8.16635
r40 3 34 0.386522
r41 3 7 5.44423
r42 2 3 0.188696
r43 2 5 16.3327
.ends

.subckt PM_COIN_BANK%X8/8 6 8 17 19 49 55
c0 87 0 1.50123f
c1 71 0 0.0541636f
c2 49 0 0.0215903f
c3 48 0 0.769436f
c4 29 0 0.333039f
c5 17 0 0.0525902f
c6 15 0 0.718119f
c7 6 0 0.0247946f
c8 4 0 0.872603f
r9 84 87 1.07085
r10 74 79 8
r11 71 87 8
r12 71 74 0.00265306
r13 67 84 8
r14 54 55 3.58592
r15 49 51 1.365
r16 48 79 0.316522
r17 48 54 8.16635
r18 47 79 0.401739
r19 47 51 5.44423
r20 46 47 0.188696
r21 46 51 16.3327
r22 30 67 0.231491
r23 30 34 8
r24 29 67 0.192719
r25 29 41 8
r26 19 21 2.925
r27 17 18 3.02631
r28 16 17 4.7849
r29 15 41 0.327174
r30 15 21 8.16635
r31 14 41 0.388043
r32 14 18 5.44423
r33 13 14 0.188696
r34 13 16 16.3327
r35 8 10 2.925
r36 6 7 3.02631
r37 5 6 4.7849
r38 4 34 0.328696
r39 4 10 8.16635
r40 3 34 0.386522
r41 3 7 5.44423
r42 2 3 0.188696
r43 2 5 16.3327
.ends

.subckt PM_COIN_BANK%X9/8 6 8 17 19 49 55
c0 87 0 0.82723f
c1 71 0 0.0524857f
c2 48 0 0.74073f
c3 29 0 0.511926f
c4 17 0 0.0245172f
c5 15 0 0.67324f
c6 10 0 0.0217914f
c7 6 0 0.0273988f
c8 4 0 0.905123f
r9 84 87 1.07085
r10 74 79 8
r11 71 87 8
r12 71 74 0.00265306
r13 67 84 8
r14 54 55 3.58592
r15 49 51 1.365
r16 48 79 0.316522
r17 48 54 8.16635
r18 47 79 0.401739
r19 47 51 5.44423
r20 46 47 0.188696
r21 46 51 16.3327
r22 30 67 0.231491
r23 30 34 8
r24 29 67 0.192719
r25 29 41 8
r26 19 21 2.925
r27 17 18 3.02631
r28 16 17 4.7849
r29 15 41 0.327174
r30 15 21 8.16635
r31 14 41 0.388043
r32 14 18 5.44423
r33 13 14 0.188696
r34 13 16 16.3327
r35 8 10 2.925
r36 6 7 3.02631
r37 5 6 4.7849
r38 4 34 0.328696
r39 4 10 8.16635
r40 3 34 0.386522
r41 3 7 5.44423
r42 2 3 0.188696
r43 2 5 16.3327
.ends

.subckt PM_COIN_BANK%X10/8 6 8 17 19 49 55
c0 87 0 0.966226f
c1 71 0 0.0526468f
c2 49 0 0.0151138f
c3 48 0 0.754969f
c4 29 0 0.344221f
c5 17 0 0.0304178f
c6 15 0 0.690867f
c7 10 0 0.00225408f
c8 6 0 0.0479542f
c9 4 0 0.894875f
r10 84 87 1.07085
r11 74 79 8
r12 71 87 8
r13 71 74 0.00265306
r14 67 84 8
r15 54 55 3.58592
r16 49 51 1.365
r17 48 79 0.316522
r18 48 54 8.16635
r19 47 79 0.401739
r20 47 51 5.44423
r21 46 47 0.188696
r22 46 51 16.3327
r23 30 67 0.231491
r24 30 34 8
r25 29 67 0.192719
r26 29 41 8
r27 19 21 2.925
r28 17 18 3.02631
r29 16 17 4.7849
r30 15 41 0.327174
r31 15 21 8.16635
r32 14 41 0.388043
r33 14 18 5.44423
r34 13 14 0.188696
r35 13 16 16.3327
r36 8 10 2.925
r37 6 7 3.02631
r38 5 6 4.7849
r39 4 34 0.328696
r40 4 10 8.16635
r41 3 34 0.386522
r42 3 7 5.44423
r43 2 3 0.188696
r44 2 5 16.3327
.ends

.subckt PM_COIN_BANK%X11/6 19 24 30
c0 35 0 0.209524f
c1 30 0 0.274332f
c2 21 0 0.0129661f
c3 16 0 0.0281316f
c4 14 0 0.2333f
c5 10 0 0.525559f
c6 7 0 0.0551323f
c7 6 0 0.0431718f
c8 4 0 0.231836f
r9 35 36 9.70598
r10 30 36 90
r11 24 26 2.21786
r12 19 21 0.915
r13 18 35 13.2552
r14 15 16 0.0296412
r15 14 18 0.0332965
r16 14 15 0.286222
r17 12 21 16.3327
r18 10 21 5.44423
r19 10 12 0.208444
r20 8 16 0.00770322
r21 8 10 0.506333
r22 6 16 0.0296412
r23 6 7 0.0731111
r24 4 26 8.16635
r25 2 7 0.039111
r26 2 4 0.313444
.ends

.subckt PM_COIN_BANK%X11/7 21 27 33 37
c0 40 0 0.148257f
c1 37 0 0.459719f
c2 33 0 0.263717f
c3 25 0 0.0182704f
c4 18 0 0.0517113f
c5 16 0 0.0929416f
c6 15 0 0.229931f
c7 12 0 0.220899f
c8 9 0 0.058145f
c9 8 0 0.0911933f
c10 4 0 0.283718f
r11 40 42 9.28526
r12 40 41 9.87737
r13 37 42 175
r14 33 41 86.5
r15 27 29 2.28214
r16 23 25 0.03
r17 21 23 1.125
r18 20 40 13.2552
r19 17 18 0.00770322
r20 16 20 0.0332965
r21 16 17 0.136889
r22 14 18 0.0296412
r23 14 15 0.312667
r24 12 29 8.16635
r25 10 18 0.0296412
r26 10 12 0.338333
r27 8 15 0.039111
r28 8 9 0.0793333
r29 6 25 8.16635
r30 4 23 5.44423
r31 4 6 0.182
r32 2 9 0.039111
r33 2 4 0.0692222
.ends
